
  1019              3D

 18 17  0  0  1  0  0  0  0  0999 V2000
   -0.3650   -1.8902    0.4063 C   0  0  0  0  0  0  0  0  0  0  0  0
    0.9235   -1.5691   -0.7879 P   0  0  0  0  0  0  0  0  0  0  0  0
    1.2475    0.0020   -0.5444 O   0  0  0  0  0  0  0  0  0  0  0  0
    2.0940   -2.5004   -0.6761 O   0  0  0  0  0  0  0  0  0  0  0  0
    0.3644   -1.5785   -2.2598 F   0  0  0  0  0  0  0  0  0  0  0  0
    2.5301    0.4035   -0.0745 C   0  0  0  0  0  0  0  0  0  0  0  0
    3.4263    0.6382   -1.2827 C   0  0  0  0  0  0  0  0  0  0  0  0
    2.3631    1.6588    0.7722 C   0  0  0  0  0  0  0  0  0  0  0  0
   -0.9735   -0.9951    0.5736 H   0  0  0  0  0  0  0  0  0  0  0  0
   -1.0197   -2.6924    0.0497 H   0  0  0  0  0  0  0  0  0  0  0  0
    0.0716   -2.1998    1.3618 H   0  0  0  0  0  0  0  0  0  0  0  0
    2.9557   -0.3867    0.5543 H   0  0  0  0  0  0  0  0  0  0  0  0
    4.3822    1.0840   -0.9883 H   0  0  0  0  0  0  0  0  0  0  0  0
    3.6483   -0.3052   -1.7914 H   0  0  0  0  0  0  0  0  0  0  0  0
    2.9412    1.3039   -2.0051 H   0  0  0  0  0  0  0  0  0  0  0  0
    2.5930    1.4430    1.8186 H   0  0  0  0  0  0  0  0  0  0  0  0
    3.0325    2.4616    0.4529 H   0  0  0  0  0  0  0  0  0  0  0  0
    1.3414    2.0462    0.7347 H   0  0  0  0  0  0  0  0  0  0  0  0
  1  2  1  0  0  0  0
  2  3  1  0  0  0  0
  2  4  2  0  0  0  0
  2  5  1  0  0  0  0
  3  6  1  0  0  0  0
  6  7  1  0  0  0  0
  6  8  1  0  0  0  0
  1  9  1  0  0  0  0
  1 10  1  0  0  0  0
  1 11  1  0  0  0  0
  6 12  1  0  0  0  0
  7 13  1  0  0  0  0
  7 14  1  0  0  0  0
  7 15  1  0  0  0  0
  8 16  1  0  0  0  0
  8 17  1  0  0  0  0
  8 18  1  0  0  0  0
M  END

> <energy>
12.0372034647382

> <StdInChI>
InChI=1S/C4H10FO2P/c1-4(2)7-8(3,5)6/h4H,1-3H3/t8-/m0/s1

> <StdInChIKey>
DYAHQFWOVKZOOW-QMMMGPOBSA-N

> <AuxInfo>
1/0/N:7,8,1,6,5,4,3,2/E:(1,2)/it:im/rA:18cCPOOFCCCHHHHHHHHHH/rB:s1;s2;d2;s2;s3;s6;s6;s1;s1;s1;s6;s7;s7;s7;s8;s8;s8;/rC:-.365,-1.8902,.4063;.9235,-1.5691,-.7879;1.2475,.002,-.5444;2.094,-2.5004,-.6761;.3644,-1.5785,-2.2598;2.5301,.4035,-.0745;3.4263,.6382,-1.2827;2.3631,1.6588,.7722;-.9735,-.9951,.5736;-1.0197,-2.6924,.0497;.0716,-2.1998,1.3618;2.9557,-.3867,.5543;4.3822,1.084,-.9883;3.6483,-.3052,-1.7914;2.9412,1.3039,-2.0051;2.593,1.443,1.8186;3.0325,2.4616,.4529;1.3414,2.0462,.7347;

> <Formula>
C4 H10 F O2 P

> <Mw>
140.0932

> <SMILES>
C([H])([H])([H])[P@](F)(=O)OC([H])(C([H])([H])[H])C([H])([H])[H]

> <CSID>
30785721

$$$$
